/*---------------------------------------------------------------------------*\
  =========                 |
  \\      /  F ield         | OpenFOAM: The Open Source CFD Toolbox
   \\    /   O peration     | Website:  https://openfoam.org
    \\  /    A nd           | Version:  11
     \\/     M anipulation  |
\*---------------------------------------------------------------------------*/
Build  : 11-d5b4d966c3c5
Exec   : blockMesh
Date   : Nov 09 2023
Time   : 16:38:11
Host   : "sfgary-cloud2-00086-1-0001"
PID    : 10951
I/O    : uncollated
Case   : /home/sfgary/cyclone
nProcs : 1
sigFpe : Enabling floating point exception trapping (FOAM_SIGFPE).
fileModificationChecking : Monitoring run-time modified files using timeStampMaster (fileModificationSkew 10)
allowSystemOperations : Allowing user-supplied system call operations

// * * * * * * * * * * * * * * * * * * * * * * * * * * * * * * * * * * * * * //
Create time

Reading "blockMeshDict"

Creating block mesh from
    "system/blockMeshDict"
No non-linear block edges defined
No non-planar block faces defined
Creating topology blocks
Creating topology patches

Creating block mesh topology

Check topology

	Basic statistics
		Number of internal faces : 0
		Number of boundary faces : 6
		Number of defined boundary faces : 6
		Number of undefined boundary faces : 0
	Checking patch -> block consistency

Creating block offsets
Creating merge list .

Creating polyMesh from blockMesh
Creating patches
Creating cells
Creating points with scale 1
    Block 0 cell size :
        i : 0.0333333
        j : 0.0333333 .. 0.0333333
        k : 0.0333333 .. 0.0333333

There are no merge patch pairs edges

Writing polyMesh
----------------
Mesh Information
----------------
  boundingBox: (-0.55 -0.55 -1) (0.55 0.55 1.1)
  nPoints: 73984
  nCells: 68607
  nFaces: 211068
  nInternalFaces: 200574
----------------
Patches
----------------
  patch 0 (start: 200574 size: 2079) name: inlet
  patch 1 (start: 202653 size: 1089) name: outlet
  patch 2 (start: 203742 size: 7326) name: defaultFaces

End

/*---------------------------------------------------------------------------*\
  =========                 |
  \\      /  F ield         | OpenFOAM: The Open Source CFD Toolbox
   \\    /   O peration     | Website:  https://openfoam.org
    \\  /    A nd           | Version:  11
     \\/     M anipulation  |
\*---------------------------------------------------------------------------*/
Build  : 11-d5b4d966c3c5
Exec   : snappyHexMesh -overwrite
Date   : Nov 09 2023
Time   : 16:38:12
Host   : "sfgary-cloud2-00086-1-0001"
PID    : 11128
I/O    : uncollated
Case   : /home/sfgary/cyclone
nProcs : 1
sigFpe : Enabling floating point exception trapping (FOAM_SIGFPE).
fileModificationChecking : Monitoring run-time modified files using timeStampMaster (fileModificationSkew 10)
allowSystemOperations : Allowing user-supplied system call operations

// * * * * * * * * * * * * * * * * * * * * * * * * * * * * * * * * * * * * * //
Create time

Create mesh for time = 0

Read mesh in = 0.016848 s
Reading "snappyHexMeshDict"


Overall mesh bounding box  : (-0.55 -0.55 -1) (0.55 0.55 1.1)
Relative tolerance         : 1e-06
Absolute matching distance : 2.61343e-06

Reading refinement surfaces...
Read refinement surfaces in = 0.002951 s

Reading refinement regions...
Read refinement regions in = 1.9e-05 s

Reading features...
Read features in = 1.2e-05 s


Determining initial surface intersections
-----------------------------------------

Edge intersection testing:
    Number of edges             : 211068
    Number of edges to retest   : 211068
    Number of intersected edges : 8485
Calculated surface intersections in = 0.218021 s

Initial mesh : cells:68607  faces:211068  points:73984
Cells per refinement level:
    0	68607

Adding patches for surface regions
----------------------------------

Patch Type                Region                        
----- ----                ------                        
walls:

3     wall                walls                         

Added patches in = 0.003714 s

Selecting distributor none
Cell selection insidePoints: 1((0.001 0.001 0.001))

Refinement phase
----------------

Found point (0.001 0.001 0.001) in cell 33214 on processor 0

Surface refinement iteration 0
------------------------------

Marked for refinement due to surface intersection          : 0 cells.
Determined cells to refine in = 0.399412 s
Selected for refinement : 0 cells (out of 68607)
Stopping refining since too few cells selected.


Removing mesh beyond surface intersections
------------------------------------------

Selecting all cells in regions containing any of the points in 1((0.001 0.001 0.001))
Selected: 48617 cells.
Edge intersection testing:
    Number of edges             : 157813
    Number of edges to retest   : 13430
    Number of intersected edges : 8485

Shell refinement iteration 0
----------------------------

Marked for refinement due to distance to explicit features : 0 cells.
Marked for refinement due to refinement shells             : 0 cells.
Determined cells to refine in = 0.336818 s
Selected for internal refinement : 0 cells (out of 48617)
Stopping refining since too few cells selected.


Dangling coarse cells refinement iteration 0
--------------------------------------------

Determined cells to refine in = 0.002247 s
Selected for refinement : 0 cells (out of 48617)
Stopping refining since too few cells selected.


Dangling coarse cells refinement iteration 0
--------------------------------------------

Determined cells to refine in = 0.001681 s
Selected for refinement : 0 cells (out of 48617)
Stopping refining since too few cells selected.


Splitting mesh at surface intersections
---------------------------------------

Introducing baffles for 8485 faces that are intersected by the surface.

Edge intersection testing:
    Number of edges             : 166228
    Number of edges to retest   : 50248
    Number of intersected edges : 16876
Created baffles in = 0.149908 s


After introducing baffles : cells:48617  faces:166228  points:60457
Cells per refinement level:
    0	48617

Introducing baffles to block off problem cells
----------------------------------------------

markFacesOnProblemCells : marked 12802 additional internal faces to be converted into baffles.
Analyzed problem cells in = 0.064556 s


Introducing baffles to delete problem cells.

Edge intersection testing:
    Number of edges             : 179030
    Number of edges to retest   : 40562
    Number of intersected edges : 16909
Created baffles in = 0.15275 s


After introducing baffles : cells:48617  faces:179030  points:60457
Cells per refinement level:
    0	48617

Remove unreachable sections of mesh
-----------------------------------

Keeping all cells in regions containing any point in 1((0.001 0.001 0.001))
Selected for keeping : 30819 cells.
Edge intersection testing:
    Number of edges             : 96697
    Number of edges to retest   : 0
    Number of intersected edges : 8315
Split mesh in = 0.534677 s


After subsetting : cells:30819  faces:96697  points:35172
Cells per refinement level:
    0	30819

Handling cells with snap problems
---------------------------------

Introducing baffles for 8315 faces that are intersected by the surface.

Edge intersection testing:
    Number of edges             : 96697
    Number of edges to retest   : 24727
    Number of intersected edges : 8315
Created baffles in = 0.069482 s


After introducing baffles : cells:30819  faces:96697  points:35172
Cells per refinement level:
    0	30819

Introducing baffles to block off problem cells
----------------------------------------------

markFacesOnProblemCells : marked 0 additional internal faces to be converted into baffles.
Analyzed problem cells in = 0.033777 s


Introducing baffles to delete problem cells.

Edge intersection testing:
    Number of edges             : 96697
    Number of edges to retest   : 0
    Number of intersected edges : 8315
Created baffles in = 0.049879 s


After introducing baffles : cells:30819  faces:96697  points:35172
Cells per refinement level:
    0	30819

Remove unreachable sections of mesh
-----------------------------------

Split mesh in = 0.258998 s


After subsetting : cells:30819  faces:96697  points:35172
Cells per refinement level:
    0	30819

Merge free-standing baffles
---------------------------

freeStandingBaffles : detected 12 free-standing baffles out of 12

freeStandingBaffles : detected 0 planar (within 30 degrees) free-standing baffles out of 12

Detected free-standing baffles : 0
Merged free-standing baffles in = 0.012238 s


dupNonManifoldPoints : Found : 13 non-manifold points (out of 35172)
Edge intersection testing:
    Number of edges             : 96697
    Number of edges to retest   : 0
    Number of intersected edges : 8315
Detected unsplittable baffles : 0

Merge refined boundary faces
----------------------------

Merging 0 sets of faces.

No faces merged ...

Merging all points on surface that
- are used by only two boundary faces and
- make an angle with a cosine of more than 0.707107.

No straight edges simplified and no points removed ...
Refined mesh : cells:30819  faces:96697  points:35185
Cells per refinement level:
    0	30819
Writing mesh to time constant
Wrote mesh in = 0.095873 s.
Mesh refined in = 2.16221 s.

Morphing phase
--------------


Snapping to features in 10 iterations ...
Constructing mesh displacer ...
Using mesh parameters 
{
    maxNonOrtho     65;
    maxBoundarySkewness 20;
    maxInternalSkewness 4;
    maxConcave      80;
    minVol          -1e+30;
    minTetQuality   1e-15;
    minTwist        0.02;
    minDeterminant  0.001;
    minFaceWeight   0.05;
    minVolRatio     0.01;
    nSmoothScale    4;
    errorReduction  0.75;
}


Checking initial mesh ...
Checking faces in error :
    non-orthogonality > 65  degrees                        : 0
    faces with face-decomposition tet quality < 1e-15      : 0
    faces with concavity > 80  degrees                     : 0
    faces with skewness > 4   (internal) or 20  (boundary) : 0
    faces with interpolation weights (0..1)  < 0.05        : 0
    faces with volume ratio of neighbour cells < 0.01      : 0
    faces with face twist < 0.02                           : 0
    faces on cells with determinant < 0.001                : 0
Detected 0 illegal faces (concave, zero area or negative cell pyramid volume)
Checked initial mesh in = 0.067195 s


Smoothing patch points ...
Smoothing iteration 0
Found 26 non-manifold point(s).

Scaling iteration 0
Moving mesh using displacement scaling : min:1  max:1
Checking faces in error :
    non-orthogonality > 65  degrees                        : 0
    faces with face-decomposition tet quality < 1e-15      : 0
    faces with concavity > 80  degrees                     : 0
    faces with skewness > 4   (internal) or 20  (boundary) : 0
    faces with interpolation weights (0..1)  < 0.05        : 0
    faces with volume ratio of neighbour cells < 0.01      : 0
    faces with face twist < 0.02                           : 0
    faces on cells with determinant < 0.001                : 0
Successfully moved mesh

Smoothing iteration 1
Found 0 non-manifold point(s).

Scaling iteration 0
Moving mesh using displacement scaling : min:1  max:1
Checking faces in error :
    non-orthogonality > 65  degrees                        : 0
    faces with face-decomposition tet quality < 1e-15      : 0
    faces with concavity > 80  degrees                     : 0
    faces with skewness > 4   (internal) or 20  (boundary) : 0
    faces with interpolation weights (0..1)  < 0.05        : 0
    faces with volume ratio of neighbour cells < 0.01      : 0
    faces with face twist < 0.02                           : 0
    faces on cells with determinant < 0.001                : 0
Successfully moved mesh

Smoothing iteration 2
Found 0 non-manifold point(s).

Scaling iteration 0
Moving mesh using displacement scaling : min:1  max:1
Checking faces in error :
    non-orthogonality > 65  degrees                        : 0
    faces with face-decomposition tet quality < 1e-15      : 0
    faces with concavity > 80  degrees                     : 0
    faces with skewness > 4   (internal) or 20  (boundary) : 0
    faces with interpolation weights (0..1)  < 0.05        : 0
    faces with volume ratio of neighbour cells < 0.01      : 0
    faces with face twist < 0.02                           : 0
    faces on cells with determinant < 0.001                : 0
Successfully moved mesh

Patch points smoothed in = 0.278803 s



Morph iteration 0
-----------------
Calculating patchDisplacement as distance to nearest surface point ...
Wanted displacement : average:0.00661392 min:6.68593e-06 max:0.0226435
Calculated surface displacement in = 0.006711 s


Detecting near surfaces ...
Overriding nearest with intersection of close gaps at 0 out of 8375 points.
Overriding displacement on features :
   implicit features    : true
   explicit features    : false
   multi-patch features : false

Attraction:
     linear   : max:(0 -0.0226435 0) avg:(-8.46566e-05 -4.5226e-05 -0.000448637)
     feature  : max:(0 -0.0226435 0.0367942) avg:(-9.85882e-05 -3.62208e-05 -0.000311112)
Feature analysis : total master points:8375 attraction to :
    feature point   : 6
    feature edge    : 393
    nearest surface : 7976
    rest            : 0

--> FOAM Warning : Displacement (2.62311e-05 -9.32367e-06 0.000138112) at mesh point 24467 coord (0.381765 0.316745 0.56456) points through the surrounding patch faces
Smoothing displacement ...
Iteration 0
Iteration 10
Iteration 20
Iteration 30
Iteration 40
Iteration 50
Iteration 60
Iteration 70
Iteration 80
Iteration 90
Iteration 100
Iteration 110
Iteration 120
Iteration 130
Iteration 140
Iteration 150
Iteration 160
Iteration 170
Iteration 180
Iteration 190
Iteration 200
Iteration 210
Iteration 220
Iteration 230
Iteration 240
Iteration 250
Iteration 260
Iteration 270
Iteration 280
Iteration 290
Displacement smoothed in = 0.28956 s


Moving mesh ...

Iteration 0
Moving mesh using displacement scaling : min:1  max:1
Checking faces in error :
    non-orthogonality > 65  degrees                        : 0
    faces with face-decomposition tet quality < 1e-15      : 0
    faces with concavity > 80  degrees                     : 0
    faces with skewness > 4   (internal) or 20  (boundary) : 0
    faces with interpolation weights (0..1)  < 0.05        : 0
    faces with volume ratio of neighbour cells < 0.01      : 0
    faces with face twist < 0.02                           : 0
    faces on cells with determinant < 0.001                : 0
Successfully moved mesh
Moved mesh in = 0.082502 s



Morph iteration 1
-----------------
Calculating patchDisplacement as distance to nearest surface point ...
Wanted displacement : average:0.00605869 min:2.25962e-07 max:0.0203867
Calculated surface displacement in = 0.00671 s


Detecting near surfaces ...
Overriding nearest with intersection of close gaps at 0 out of 8375 points.
Overriding displacement on features :
   implicit features    : true
   explicit features    : false
   multi-patch features : false

Attraction:
     linear   : max:(0.0203465 -0.0012802 0) avg:(-7.44984e-05 -4.1474e-05 -0.000412776)
     feature  : max:(0.0202435 0.00127372 0.0364263) avg:(-8.97735e-05 -3.87054e-05 -0.00031128)
Feature analysis : total master points:8375 attraction to :
    feature point   : 6
    feature edge    : 389
    nearest surface : 7980
    rest            : 0

--> FOAM Warning : Displacement (-2.588e-05 -2.8158e-05 0.000231894) at mesh point 23734 coord (0.353843 0.35384 0.53328) points through the surrounding patch faces
Smoothing displacement ...
Iteration 0
Iteration 10
Iteration 20
Iteration 30
Iteration 40
Iteration 50
Iteration 60
Iteration 70
Iteration 80
Iteration 90
Iteration 100
Iteration 110
Iteration 120
Iteration 130
Iteration 140
Iteration 150
Iteration 160
Iteration 170
Iteration 180
Iteration 190
Iteration 200
Iteration 210
Iteration 220
Iteration 230
Iteration 240
Iteration 250
Iteration 260
Iteration 270
Iteration 280
Iteration 290
Displacement smoothed in = 0.28985 s


Moving mesh ...

Iteration 0
Moving mesh using displacement scaling : min:1  max:1
Checking faces in error :
    non-orthogonality > 65  degrees                        : 0
    faces with face-decomposition tet quality < 1e-15      : 0
    faces with concavity > 80  degrees                     : 0
    faces with skewness > 4   (internal) or 20  (boundary) : 0
    faces with interpolation weights (0..1)  < 0.05        : 0
    faces with volume ratio of neighbour cells < 0.01      : 0
    faces with face twist < 0.02                           : 0
    faces on cells with determinant < 0.001                : 0
Successfully moved mesh
Moved mesh in = 0.082814 s



Morph iteration 2
-----------------
Calculating patchDisplacement as distance to nearest surface point ...
Wanted displacement : average:0.00507812 min:1.10033e-05 max:0.0183389
Calculated surface displacement in = 0.006604 s


Detecting near surfaces ...
Overriding nearest with intersection of close gaps at 0 out of 8375 points.
Overriding displacement on features :
   implicit features    : true
   explicit features    : false
   multi-patch features : false

Attraction:
     linear   : max:(6.245e-17 0.0183389 -2.22045e-16) avg:(-5.64671e-05 -3.45091e-05 -0.000347837)
     feature  : max:(0 0.0183389 0.0346184) avg:(-7.16892e-05 -3.7918e-05 -0.00021755)
Feature analysis : total master points:8375 attraction to :
    feature point   : 6
    feature edge    : 393
    nearest surface : 7976
    rest            : 0

--> FOAM Warning : Displacement (-8.65564e-05 -8.32784e-05 0.000319942) at mesh point 23735 coord (0.370443 0.337693 0.533528) points through the surrounding patch faces
Smoothing displacement ...
Iteration 0
Iteration 10
Iteration 20
Iteration 30
Iteration 40
Iteration 50
Iteration 60
Iteration 70
Iteration 80
Iteration 90
Iteration 100
Iteration 110
Iteration 120
Iteration 130
Iteration 140
Iteration 150
Iteration 160
Iteration 170
Iteration 180
Iteration 190
Iteration 200
Iteration 210
Iteration 220
Iteration 230
Iteration 240
Iteration 250
Iteration 260
Iteration 270
Iteration 280
Iteration 290
Displacement smoothed in = 0.287698 s


Moving mesh ...

Iteration 0
Moving mesh using displacement scaling : min:1  max:1
Checking faces in error :
    non-orthogonality > 65  degrees                        : 0
    faces with face-decomposition tet quality < 1e-15      : 0
    faces with concavity > 80  degrees                     : 0
    faces with skewness > 4   (internal) or 20  (boundary) : 0
    faces with interpolation weights (0..1)  < 0.05        : 0
    faces with volume ratio of neighbour cells < 0.01      : 0
    faces with face twist < 0.02                           : 0
    faces on cells with determinant < 0.001                : 0
Successfully moved mesh
Moved mesh in = 0.084452 s



Morph iteration 3
-----------------
Calculating patchDisplacement as distance to nearest surface point ...
Wanted displacement : average:0.00387517 min:3.19918e-07 max:0.0132951
Calculated surface displacement in = 0.006359 s


Detecting near surfaces ...
Overriding nearest with intersection of close gaps at 0 out of 8375 points.
Overriding displacement on features :
   implicit features    : true
   explicit features    : false
   multi-patch features : false

Attraction:
     linear   : max:(0.0132688 -0.000834873 0) avg:(-3.54845e-05 -2.57866e-05 -0.000264458)
     feature  : max:(0.029095 -0.00183065 0.00790909) avg:(-5.02467e-05 -3.00923e-05 -0.000188394)
Feature analysis : total master points:8375 attraction to :
    feature point   : 6
    feature edge    : 381
    nearest surface : 7988
    rest            : 0

--> FOAM Warning : Displacement (-1.07492e-05 1.07188e-05 5.49949e-05) at mesh point 7243 coord (0.436511 -0.0148686 -0.18669) points through the surrounding patch faces
Smoothing displacement ...
Iteration 0
Iteration 10
Iteration 20
Iteration 30
Iteration 40
Iteration 50
Iteration 60
Iteration 70
Iteration 80
Iteration 90
Iteration 100
Iteration 110
Iteration 120
Iteration 130
Iteration 140
Iteration 150
Iteration 160
Iteration 170
Iteration 180
Iteration 190
Iteration 200
Iteration 210
Iteration 220
Iteration 230
Iteration 240
Iteration 250
Iteration 260
Iteration 270
Iteration 280
Iteration 290
Displacement smoothed in = 0.288313 s


Moving mesh ...

Iteration 0
Moving mesh using displacement scaling : min:1  max:1
Checking faces in error :
    non-orthogonality > 65  degrees                        : 0
    faces with face-decomposition tet quality < 1e-15      : 0
    faces with concavity > 80  degrees                     : 0
    faces with skewness > 4   (internal) or 20  (boundary) : 0
    faces with interpolation weights (0..1)  < 0.05        : 0
    faces with volume ratio of neighbour cells < 0.01      : 0
    faces with face twist < 0.02                           : 0
    faces on cells with determinant < 0.001                : 0
Successfully moved mesh
Moved mesh in = 0.08488 s



Morph iteration 4
-----------------
Calculating patchDisplacement as distance to nearest surface point ...
Wanted displacement : average:0.00270269 min:3.51165e-06 max:0.00929829
Calculated surface displacement in = 0.00617 s


Detecting near surfaces ...
Overriding nearest with intersection of close gaps at 0 out of 8375 points.
Overriding displacement on features :
   implicit features    : true
   explicit features    : false
   multi-patch features : false

Attraction:
     linear   : max:(3.46945e-18 -0.00877816 -0.00306629) avg:(-1.69979e-05 -1.70124e-05 -0.000180272)
     feature  : max:(-0.0244398 -0.00153775 0.00474545) avg:(-2.9799e-05 -2.16729e-05 -0.000119355)
Feature analysis : total master points:8375 attraction to :
    feature point   : 6
    feature edge    : 381
    nearest surface : 7988
    rest            : 0

--> FOAM Warning : Displacement (-0.000255494 0.00031362 -0.000688344) at mesh point 95 coord (0.102133 -0.133989 -0.955006) points through the surrounding patch faces
Smoothing displacement ...
Iteration 0
Iteration 10
Iteration 20
Iteration 30
Iteration 40
Iteration 50
Iteration 60
Iteration 70
Iteration 80
Iteration 90
Iteration 100
Iteration 110
Iteration 120
Iteration 130
Iteration 140
Iteration 150
Iteration 160
Iteration 170
Iteration 180
Iteration 190
Iteration 200
Iteration 210
Iteration 220
Iteration 230
Iteration 240
Iteration 250
Iteration 260
Iteration 270
Iteration 280
Iteration 290
Displacement smoothed in = 0.287603 s


Moving mesh ...

Iteration 0
Moving mesh using displacement scaling : min:1  max:1
Checking faces in error :
    non-orthogonality > 65  degrees                        : 0
    faces with face-decomposition tet quality < 1e-15      : 0
    faces with concavity > 80  degrees                     : 0
    faces with skewness > 4   (internal) or 20  (boundary) : 0
    faces with interpolation weights (0..1)  < 0.05        : 0
    faces with volume ratio of neighbour cells < 0.01      : 0
    faces with face twist < 0.02                           : 0
    faces on cells with determinant < 0.001                : 0
Successfully moved mesh
Moved mesh in = 0.084455 s



Morph iteration 5
-----------------
Calculating patchDisplacement as distance to nearest surface point ...
Wanted displacement : average:0.00171621 min:1.09495e-06 max:0.00651072
Calculated surface displacement in = 0.005999 s


Detecting near surfaces ...
Overriding nearest with intersection of close gaps at 0 out of 8375 points.
Overriding displacement on features :
   implicit features    : true
   explicit features    : false
   multi-patch features : false

Attraction:
     linear   : max:(-0.00649788 -0.000408792 0) avg:(-4.63871e-06 -9.71637e-06 -0.000106053)
     feature  : max:(0.0183298 -0.00115331 0.00237273) avg:(-1.4778e-05 -1.66872e-05 -6.64873e-05)
Feature analysis : total master points:8375 attraction to :
    feature point   : 6
    feature edge    : 381
    nearest surface : 7988
    rest            : 0

--> FOAM Warning : Displacement (-0.000178317 0.000294518 -0.00101379) at mesh point 94 coord (0.0812955 -0.139956 -0.967562) points through the surrounding patch faces
Smoothing displacement ...
Iteration 0
Iteration 10
Iteration 20
Iteration 30
Iteration 40
Iteration 50
Iteration 60
Iteration 70
Iteration 80
Iteration 90
Iteration 100
Iteration 110
Iteration 120
Iteration 130
Iteration 140
Iteration 150
Iteration 160
Iteration 170
Iteration 180
Iteration 190
Iteration 200
Iteration 210
Iteration 220
Iteration 230
Iteration 240
Iteration 250
Iteration 260
Iteration 270
Iteration 280
Iteration 290
Displacement smoothed in = 0.287797 s


Moving mesh ...

Iteration 0
Moving mesh using displacement scaling : min:1  max:1
Checking faces in error :
    non-orthogonality > 65  degrees                        : 0
    faces with face-decomposition tet quality < 1e-15      : 0
    faces with concavity > 80  degrees                     : 0
    faces with skewness > 4   (internal) or 20  (boundary) : 0
    faces with interpolation weights (0..1)  < 0.05        : 0
    faces with volume ratio of neighbour cells < 0.01      : 0
    faces with face twist < 0.02                           : 0
    faces on cells with determinant < 0.001                : 0
Successfully moved mesh
Moved mesh in = 0.082404 s



Morph iteration 6
-----------------
Calculating patchDisplacement as distance to nearest surface point ...
Wanted displacement : average:0.00096805 min:2.51173e-07 max:0.00631754
Calculated surface displacement in = 0.005973 s


Detecting near surfaces ...
Overriding nearest with intersection of close gaps at 0 out of 8375 points.
Overriding displacement on features :
   implicit features    : true
   explicit features    : false
   multi-patch features : false

Attraction:
     linear   : max:(-0.00630508 -0.000396662 0) avg:(1.00205e-06 -4.48027e-06 -5.03051e-05)
     feature  : max:(-0.0117311 -0.000738118 0.000949091) avg:(-6.10693e-06 -9.83516e-06 -3.50375e-05)
Feature analysis : total master points:8375 attraction to :
    feature point   : 6
    feature edge    : 381
    nearest surface : 7988
    rest            : 0

--> FOAM Warning : Displacement (-0.000224352 0.000523299 -0.000702431) at mesh point 94 coord (0.0811172 -0.139661 -0.968576) points through the surrounding patch faces
Smoothing displacement ...
Iteration 0
Iteration 10
Iteration 20
Iteration 30
Iteration 40
Iteration 50
Iteration 60
Iteration 70
Iteration 80
Iteration 90
Iteration 100
Iteration 110
Iteration 120
Iteration 130
Iteration 140
Iteration 150
Iteration 160
Iteration 170
Iteration 180
Iteration 190
Iteration 200
Iteration 210
Iteration 220
Iteration 230
Iteration 240
Iteration 250
Iteration 260
Iteration 270
Iteration 280
Iteration 290
Displacement smoothed in = 0.287803 s


Moving mesh ...

Iteration 0
Moving mesh using displacement scaling : min:1  max:1
Checking faces in error :
    non-orthogonality > 65  degrees                        : 0
    faces with face-decomposition tet quality < 1e-15      : 0
    faces with concavity > 80  degrees                     : 0
    faces with skewness > 4   (internal) or 20  (boundary) : 0
    faces with interpolation weights (0..1)  < 0.05        : 0
    faces with volume ratio of neighbour cells < 0.01      : 0
    faces with face twist < 0.02                           : 0
    faces on cells with determinant < 0.001                : 0
Successfully moved mesh
Moved mesh in = 0.083167 s



Morph iteration 7
-----------------
Calculating patchDisplacement as distance to nearest surface point ...
Wanted displacement : average:0.000486871 min:1.33759e-07 max:0.00487566
Calculated surface displacement in = 0.006012 s


Detecting near surfaces ...
Overriding nearest with intersection of close gaps at 0 out of 8375 points.
Overriding displacement on features :
   implicit features    : true
   explicit features    : false
   multi-patch features : false

Attraction:
     linear   : max:(-0.00486604 -0.00030613 0) avg:(1.95251e-06 -1.41905e-06 -1.54176e-05)
     feature  : max:(0.00598285 -0.00037644 0.000284727) avg:(-2.86878e-06 -5.69257e-06 -2.04093e-05)
Feature analysis : total master points:8375 attraction to :
    feature point   : 6
    feature edge    : 381
    nearest surface : 7988
    rest            : 0

--> FOAM Warning : Displacement (-0.000193472 0.000433357 -0.000400237) at mesh point 94 coord (0.0808928 -0.139138 -0.969278) points through the surrounding patch faces
Smoothing displacement ...
Iteration 0
Iteration 10
Iteration 20
Iteration 30
Iteration 40
Iteration 50
Iteration 60
Iteration 70
Iteration 80
Iteration 90
Iteration 100
Iteration 110
Iteration 120
Iteration 130
Iteration 140
Iteration 150
Iteration 160
Iteration 170
Iteration 180
Iteration 190
Iteration 200
Iteration 210
Iteration 220
Iteration 230
Iteration 240
Iteration 250
Iteration 260
Iteration 270
Iteration 280
Iteration 290
Displacement smoothed in = 0.28875 s


Moving mesh ...

Iteration 0
Moving mesh using displacement scaling : min:1  max:1
Checking faces in error :
    non-orthogonality > 65  degrees                        : 0
    faces with face-decomposition tet quality < 1e-15      : 0
    faces with concavity > 80  degrees                     : 0
    faces with skewness > 4   (internal) or 20  (boundary) : 0
    faces with interpolation weights (0..1)  < 0.05        : 0
    faces with volume ratio of neighbour cells < 0.01      : 0
    faces with face twist < 0.02                           : 0
    faces on cells with determinant < 0.001                : 0
Successfully moved mesh
Moved mesh in = 0.083573 s



Morph iteration 8
-----------------
Calculating patchDisplacement as distance to nearest surface point ...
Wanted displacement : average:0.000198568 min:1.18053e-08 max:0.00279094
Calculated surface displacement in = 0.005918 s


Detecting near surfaces ...
Overriding nearest with intersection of close gaps at 0 out of 8375 points.
Overriding displacement on features :
   implicit features    : true
   explicit features    : false
   multi-patch features : false

Attraction:
     linear   : max:(0.00278543 -0.000175259 1.11022e-16) avg:(1.18993e-06 -1.36375e-07 4.34777e-07)
     feature  : max:(-0.00301967 -0.00249807 -0.00136895) avg:(-8.38032e-07 -3.23748e-06 -1.57702e-05)
Feature analysis : total master points:8375 attraction to :
    feature point   : 6
    feature edge    : 381
    nearest surface : 7988
    rest            : 0

--> FOAM Warning : Displacement (-3.44079e-05 7.26517e-06 0.000129577) at mesh point 135 coord (0.158257 -0.0176979 -0.974002) points through the surrounding patch faces
Smoothing displacement ...
Iteration 0
Iteration 10
Iteration 20
Iteration 30
Iteration 40
Iteration 50
Iteration 60
Iteration 70
Iteration 80
Iteration 90
Iteration 100
Iteration 110
Iteration 120
Iteration 130
Iteration 140
Iteration 150
Iteration 160
Iteration 170
Iteration 180
Iteration 190
Iteration 200
Iteration 210
Iteration 220
Iteration 230
Iteration 240
Iteration 250
Iteration 260
Iteration 270
Iteration 280
Iteration 290
Displacement smoothed in = 0.287376 s


Moving mesh ...

Iteration 0
Moving mesh using displacement scaling : min:1  max:1
Checking faces in error :
    non-orthogonality > 65  degrees                        : 0
    faces with face-decomposition tet quality < 1e-15      : 0
    faces with concavity > 80  degrees                     : 0
    faces with skewness > 4   (internal) or 20  (boundary) : 0
    faces with interpolation weights (0..1)  < 0.05        : 0
    faces with volume ratio of neighbour cells < 0.01      : 0
    faces with face twist < 0.02                           : 0
    faces on cells with determinant < 0.001                : 0
Successfully moved mesh
Moved mesh in = 0.084974 s



Morph iteration 9
-----------------
Calculating patchDisplacement as distance to nearest surface point ...
Wanted displacement : average:5.8939e-05 min:6.37806e-09 max:0.00179646
Calculated surface displacement in = 0.006018 s


Detecting near surfaces ...
Overriding nearest with intersection of close gaps at 1 out of 8375 points.
Overriding displacement on features :
   implicit features    : true
   explicit features    : false
   multi-patch features : false

Attraction:
     linear   : max:(0.00179292 0.000112821 0) avg:(2.21962e-07 1.10297e-07 4.12025e-06)
     feature  : max:(0.00276086 -0.00294 -0.0014088) avg:(6.19617e-08 -1.19527e-06 -1.88995e-05)
Feature analysis : total master points:8375 attraction to :
    feature point   : 6
    feature edge    : 381
    nearest surface : 7988
    rest            : 0

--> FOAM Warning : Displacement (-0.000169807 1.06852e-05 5.94324e-05) at mesh point 135 coord (0.158223 -0.0176906 -0.973873) points through the surrounding patch faces
Smoothing displacement ...
Iteration 0
Iteration 10
Iteration 20
Iteration 30
Iteration 40
Iteration 50
Iteration 60
Iteration 70
Iteration 80
Iteration 90
Iteration 100
Iteration 110
Iteration 120
Iteration 130
Iteration 140
Iteration 150
Iteration 160
Iteration 170
Iteration 180
Iteration 190
Iteration 200
Iteration 210
Iteration 220
Iteration 230
Iteration 240
Iteration 250
Iteration 260
Iteration 270
Iteration 280
Iteration 290
Displacement smoothed in = 0.278872 s


Moving mesh ...

Iteration 0
Moving mesh using displacement scaling : min:1  max:1
Checking faces in error :
    non-orthogonality > 65  degrees                        : 0
    faces with face-decomposition tet quality < 1e-15      : 0
    faces with concavity > 80  degrees                     : 0
    faces with skewness > 4   (internal) or 20  (boundary) : 0
    faces with interpolation weights (0..1)  < 0.05        : 0
    faces with volume ratio of neighbour cells < 0.01      : 0
    faces with face twist < 0.02                           : 0
    faces on cells with determinant < 0.001                : 0
Successfully moved mesh
Moved mesh in = 0.084598 s


Repatching faces according to nearest surface ...
Repatched 0 faces in = 0.017414 s


Edge intersection testing:
    Number of edges             : 96697
    Number of edges to retest   : 25075
    Number of intersected edges : 8339
Merging 2060 sets of faces.

Edge intersection testing:
    Number of edges             : 94113
    Number of edges to retest   : 8236
    Number of intersected edges : 5755

Undo iteration 0
----------------
Checking faces in error :
    non-orthogonality > 65  degrees                        : 0
    faces with face-decomposition tet quality < 1e-15      : 0
    faces with concavity > 80  degrees                     : 0
    faces with skewness > 4   (internal) or 20  (boundary) : 0
    faces with interpolation weights (0..1)  < 0.05        : 0
    faces with volume ratio of neighbour cells < 0.01      : 0
    faces with face twist < 0.02                           : 0
    faces on cells with determinant < 0.001                : 0

Merging all points on surface that
- are used by only two boundary faces and
- make an angle with a cosine of more than 0.866025.

Removing 1603 straight edge points ...

Edge intersection testing:
    Number of edges             : 94113
    Number of edges to retest   : 7484
    Number of intersected edges : 5755

Undo iteration 0
----------------
Checking faces in error :
    non-orthogonality > 65  degrees                        : 0
    faces with face-decomposition tet quality < 1e-15      : 0
    faces with concavity > 80  degrees                     : 0
    faces with skewness > 4   (internal) or 20  (boundary) : 0
    faces with interpolation weights (0..1)  < 0.05        : 0
    faces with volume ratio of neighbour cells < 0.01      : 0
    faces with face twist < 0.02                           : 0
    faces on cells with determinant < 0.001                : 0

Removing zero-sized patches:
    defaultFaces type patch at position 2

Snapped mesh : cells:30819  faces:94113  points:33058
Cells per refinement level:
    0	30819
Writing mesh to time constant
Wrote mesh in = 0.334633 s.
Mesh snapped in = 4.47194 s.
Checking final mesh ...
Checking faces in error :
    non-orthogonality > 65  degrees                        : 0
    faces with face-decomposition tet quality < 1e-15      : 0
    faces with concavity > 80  degrees                     : 0
    faces with skewness > 4   (internal) or 20  (boundary) : 0
    faces with interpolation weights (0..1)  < 0.05        : 0
    faces with volume ratio of neighbour cells < 0.01      : 0
    faces with face twist < 0.02                           : 0
    faces on cells with determinant < 0.001                : 0
Finished meshing without any errors
Finished meshing in = 6.93106 s.
End

/*---------------------------------------------------------------------------*\
  =========                 |
  \\      /  F ield         | OpenFOAM: The Open Source CFD Toolbox
   \\    /   O peration     | Website:  https://openfoam.org
    \\  /    A nd           | Version:  11
     \\/     M anipulation  |
\*---------------------------------------------------------------------------*/
Build  : 11-d5b4d966c3c5
Exec   : decomposePar
Date   : Nov 09 2023
Time   : 16:38:19
Host   : "sfgary-cloud2-00086-1-0001"
PID    : 11325
I/O    : uncollated
Case   : /home/sfgary/cyclone
nProcs : 1
sigFpe : Enabling floating point exception trapping (FOAM_SIGFPE).
fileModificationChecking : Monitoring run-time modified files using timeStampMaster (fileModificationSkew 10)
allowSystemOperations : Allowing user-supplied system call operations

// * * * * * * * * * * * * * * * * * * * * * * * * * * * * * * * * * * * * * //
Create time



Decomposing mesh region0

Create mesh

Calculating distribution of cells
Selecting decomposer simple

Finished decomposition in 0.01615 s

Calculating original mesh data

Distributing cells to processors

Distributing faces to processors

Distributing points to processors

Constructing processor meshes

Processor 0
    Number of cells = 2705
    Number of faces shared with processor 1 = 299
    Number of faces shared with processor 2 = 337
    Number of faces shared with processor 3 = 1
    Number of faces shared with processor 4 = 193
    Number of faces shared with processor 5 = 1
    Number of processor patches = 5
    Number of processor faces = 831
    Number of boundary faces = 436

Processor 1
    Number of cells = 2305
    Number of faces shared with processor 0 = 299
    Number of faces shared with processor 3 = 294
    Number of faces shared with processor 5 = 196
    Number of processor patches = 3
    Number of processor faces = 789
    Number of boundary faces = 389

Processor 2
    Number of cells = 2781
    Number of faces shared with processor 0 = 337
    Number of faces shared with processor 3 = 309
    Number of faces shared with processor 6 = 203
    Number of processor patches = 3
    Number of processor faces = 849
    Number of boundary faces = 446

Processor 3
    Number of cells = 2482
    Number of faces shared with processor 0 = 1
    Number of faces shared with processor 1 = 294
    Number of faces shared with processor 2 = 309
    Number of faces shared with processor 5 = 1
    Number of faces shared with processor 7 = 201
    Number of processor patches = 5
    Number of processor faces = 806
    Number of boundary faces = 416

Processor 4
    Number of cells = 2600
    Number of faces shared with processor 0 = 193
    Number of faces shared with processor 5 = 243
    Number of faces shared with processor 6 = 216
    Number of faces shared with processor 8 = 195
    Number of faces shared with processor 10 = 1
    Number of processor patches = 5
    Number of processor faces = 848
    Number of boundary faces = 300

Processor 5
    Number of cells = 2699
    Number of faces shared with processor 0 = 1
    Number of faces shared with processor 1 = 196
    Number of faces shared with processor 3 = 1
    Number of faces shared with processor 4 = 243
    Number of faces shared with processor 6 = 2
    Number of faces shared with processor 7 = 222
    Number of faces shared with processor 9 = 210
    Number of processor patches = 7
    Number of processor faces = 875
    Number of boundary faces = 319

Processor 6
    Number of cells = 2549
    Number of faces shared with processor 2 = 203
    Number of faces shared with processor 4 = 216
    Number of faces shared with processor 5 = 2
    Number of faces shared with processor 7 = 215
    Number of faces shared with processor 10 = 190
    Number of faces shared with processor 11 = 1
    Number of processor patches = 6
    Number of processor faces = 827
    Number of boundary faces = 309

Processor 7
    Number of cells = 2425
    Number of faces shared with processor 3 = 201
    Number of faces shared with processor 5 = 222
    Number of faces shared with processor 6 = 215
    Number of faces shared with processor 11 = 180
    Number of processor patches = 4
    Number of processor faces = 818
    Number of boundary faces = 302

Processor 8
    Number of cells = 2437
    Number of faces shared with processor 4 = 195
    Number of faces shared with processor 9 = 217
    Number of faces shared with processor 10 = 188
    Number of processor patches = 3
    Number of processor faces = 600
    Number of boundary faces = 687

Processor 9
    Number of cells = 2664
    Number of faces shared with processor 5 = 210
    Number of faces shared with processor 8 = 217
    Number of faces shared with processor 11 = 206
    Number of processor patches = 3
    Number of processor faces = 633
    Number of boundary faces = 744

Processor 10
    Number of cells = 2338
    Number of faces shared with processor 4 = 1
    Number of faces shared with processor 6 = 190
    Number of faces shared with processor 8 = 188
    Number of faces shared with processor 11 = 221
    Number of processor patches = 4
    Number of processor faces = 600
    Number of boundary faces = 643

Processor 11
    Number of cells = 2834
    Number of faces shared with processor 6 = 1
    Number of faces shared with processor 7 = 180
    Number of faces shared with processor 9 = 206
    Number of faces shared with processor 10 = 221
    Number of processor patches = 4
    Number of processor faces = 608
    Number of boundary faces = 905

Number of processor faces = 4542
Max number of cells = 2834 (10.3475% above average 2568.25)
Max number of processor patches = 7 (61.5385% above average 4.33333)
Max number of faces between processors = 875 (15.5878% above average 757)

Time = 0s

Processor 0: field transfer
Processor 1: field transfer
Processor 2: field transfer
Processor 3: field transfer
Processor 4: field transfer
Processor 5: field transfer
Processor 6: field transfer
Processor 7: field transfer
Processor 8: field transfer
Processor 9: field transfer
Processor 10: field transfer
Processor 11: field transfer

End

[sfgary-cloud2-00086-1-0001:11705] mca: base: components_register: registering framework btl components
[sfgary-cloud2-00086-1-0001:11705] mca: base: components_register: found loaded component openib
[sfgary-cloud2-00086-1-0001:11705] mca: base: components_register: component openib register function successful
[sfgary-cloud2-00086-1-0001:11705] mca: base: components_register: found loaded component self
[sfgary-cloud2-00086-1-0001:11705] mca: base: components_register: component self register function successful
[sfgary-cloud2-00086-1-0001:11705] mca: base: components_register: found loaded component sm
[sfgary-cloud2-00086-1-0001:11705] mca: base: components_register: found loaded component tcp
[sfgary-cloud2-00086-1-0001:11706] mca: base: components_register: registering framework btl components
[sfgary-cloud2-00086-1-0001:11706] mca: base: components_register: found loaded component openib
[sfgary-cloud2-00086-1-0001:11705] mca: base: components_register: component tcp register function successful
[sfgary-cloud2-00086-1-0001:11705] mca: base: components_register: found loaded component vader
[sfgary-cloud2-00086-1-0001:11705] mca: base: components_register: component vader register function successful
[sfgary-cloud2-00086-1-0001:11705] mca: base: components_open: opening btl components
[sfgary-cloud2-00086-1-0001:11705] mca: base: components_open: found loaded component openib
[sfgary-cloud2-00086-1-0001:11705] mca: base: components_open: component openib open function successful
[sfgary-cloud2-00086-1-0001:11705] mca: base: components_open: found loaded component self
[sfgary-cloud2-00086-1-0001:11705] mca: base: components_open: component self open function successful
[sfgary-cloud2-00086-1-0001:11705] mca: base: components_open: found loaded component tcp
[sfgary-cloud2-00086-1-0001:11705] mca: base: components_open: component tcp open function successful
[sfgary-cloud2-00086-1-0001:11705] mca: base: components_open: found loaded component vader
[sfgary-cloud2-00086-1-0001:11705] mca: base: components_open: component vader open function successful
[sfgary-cloud2-00086-1-0001:11705] select: initializing btl component openib
[sfgary-cloud2-00086-1-0001:11705] select: init of component openib returned failure
[sfgary-cloud2-00086-1-0001:11705] mca: base: close: component openib closed
[sfgary-cloud2-00086-1-0001:11705] mca: base: close: unloading component openib
[sfgary-cloud2-00086-1-0001:11706] mca: base: components_register: component openib register function successful
[sfgary-cloud2-00086-1-0001:11705] select: initializing btl component self
[sfgary-cloud2-00086-1-0001:11706] mca: base: components_register: found loaded component self
[sfgary-cloud2-00086-1-0001:11705] select: init of component self returned success
[sfgary-cloud2-00086-1-0001:11705] select: initializing btl component tcp
[sfgary-cloud2-00086-1-0001:11706] mca: base: components_register: component self register function successful
[sfgary-cloud2-00086-1-0001:11706] mca: base: components_register: found loaded component sm
[sfgary-cloud2-00086-1-0001:11706] mca: base: components_register: found loaded component tcp
[sfgary-cloud2-00086-1-0001:11705] btl:tcp: Attempting to bind to AF_INET port 1024
[sfgary-cloud2-00086-1-0001:11706] mca: base: components_register: component tcp register function successful
[sfgary-cloud2-00086-1-0001:11706] mca: base: components_register: found loaded component vader
[sfgary-cloud2-00086-1-0001:11705] btl:tcp: Successfully bound to AF_INET port 1024
[sfgary-cloud2-00086-1-0001:11705] btl:tcp: my listening v4 socket is 0.0.0.0:1024
[sfgary-cloud2-00086-1-0001:11705] btl:tcp: examining interface eth0
[sfgary-cloud2-00086-1-0001:11705] btl:tcp: using ipv6 interface eth0
[sfgary-cloud2-00086-1-0001:11706] mca: base: components_register: component vader register function successful
[sfgary-cloud2-00086-1-0001:11706] mca: base: components_open: opening btl components
[sfgary-cloud2-00086-1-0001:11706] mca: base: components_open: found loaded component openib
[sfgary-cloud2-00086-1-0001:11706] mca: base: components_open: component openib open function successful
[sfgary-cloud2-00086-1-0001:11706] mca: base: components_open: found loaded component self
[sfgary-cloud2-00086-1-0001:11706] mca: base: components_open: component self open function successful
[sfgary-cloud2-00086-1-0001:11706] mca: base: components_open: found loaded component tcp
[sfgary-cloud2-00086-1-0001:11706] mca: base: components_open: component tcp open function successful
[sfgary-cloud2-00086-1-0001:11706] mca: base: components_open: found loaded component vader
[sfgary-cloud2-00086-1-0001:11705] select: init of component tcp returned success
[sfgary-cloud2-00086-1-0001:11706] mca: base: components_open: component vader open function successful
[sfgary-cloud2-00086-1-0001:11706] select: initializing btl component openib
[sfgary-cloud2-00086-1-0001:11705] select: initializing btl component vader
[sfgary-cloud2-00086-1-0001:11706] select: init of component openib returned failure
[sfgary-cloud2-00086-1-0001:11706] mca: base: close: component openib closed
[sfgary-cloud2-00086-1-0001:11706] mca: base: close: unloading component openib
[sfgary-cloud2-00086-1-0001:11705] select: init of component vader returned success
[sfgary-cloud2-00086-1-0001:11706] select: initializing btl component self
[sfgary-cloud2-00086-1-0001:11706] select: init of component self returned success
[sfgary-cloud2-00086-1-0001:11706] select: initializing btl component tcp
[sfgary-cloud2-00086-1-0001:11706] btl:tcp: Attempting to bind to AF_INET port 1024
[sfgary-cloud2-00086-1-0001:11706] btl:tcp: Attempting to bind to AF_INET port 1025
[sfgary-cloud2-00086-1-0001:11706] btl:tcp: Successfully bound to AF_INET port 1025
[sfgary-cloud2-00086-1-0001:11706] btl:tcp: my listening v4 socket is 0.0.0.0:1025
[sfgary-cloud2-00086-1-0001:11706] btl:tcp: examining interface eth0
[sfgary-cloud2-00086-1-0001:11706] btl:tcp: using ipv6 interface eth0
[sfgary-cloud2-00086-1-0001:11706] select: init of component tcp returned success
[sfgary-cloud2-00086-1-0001:11706] select: initializing btl component vader
[sfgary-cloud2-00086-1-0001:11706] select: init of component vader returned success
[sfgary-cloud2-00086-1-0003:11140] mca: base: components_register: registering framework btl components
[sfgary-cloud2-00086-1-0003:11140] mca: base: components_register: found loaded component openib
[sfgary-cloud2-00086-1-0003:11141] mca: base: components_register: registering framework btl components
[sfgary-cloud2-00086-1-0003:11141] mca: base: components_register: found loaded component openib
[sfgary-cloud2-00086-1-0003:11140] mca: base: components_register: component openib register function successful
[sfgary-cloud2-00086-1-0003:11140] mca: base: components_register: found loaded component self
[sfgary-cloud2-00086-1-0003:11140] mca: base: components_register: component self register function successful
[sfgary-cloud2-00086-1-0003:11140] mca: base: components_register: found loaded component sm
[sfgary-cloud2-00086-1-0003:11140] mca: base: components_register: found loaded component tcp
[sfgary-cloud2-00086-1-0003:11140] mca: base: components_register: component tcp register function successful
[sfgary-cloud2-00086-1-0003:11140] mca: base: components_register: found loaded component vader
[sfgary-cloud2-00086-1-0003:11140] mca: base: components_register: component vader register function successful
[sfgary-cloud2-00086-1-0003:11140] mca: base: components_open: opening btl components
[sfgary-cloud2-00086-1-0003:11140] mca: base: components_open: found loaded component openib
[sfgary-cloud2-00086-1-0003:11140] mca: base: components_open: component openib open function successful
[sfgary-cloud2-00086-1-0003:11140] mca: base: components_open: found loaded component self
[sfgary-cloud2-00086-1-0003:11140] mca: base: components_open: component self open function successful
[sfgary-cloud2-00086-1-0003:11140] mca: base: components_open: found loaded component tcp
[sfgary-cloud2-00086-1-0003:11140] mca: base: components_open: component tcp open function successful
[sfgary-cloud2-00086-1-0003:11140] mca: base: components_open: found loaded component vader
[sfgary-cloud2-00086-1-0003:11140] mca: base: components_open: component vader open function successful
[sfgary-cloud2-00086-1-0003:11140] select: initializing btl component openib
[sfgary-cloud2-00086-1-0003:11140] select: init of component openib returned failure
[sfgary-cloud2-00086-1-0003:11140] mca: base: close: component openib closed
[sfgary-cloud2-00086-1-0003:11140] mca: base: close: unloading component openib
[sfgary-cloud2-00086-1-0003:11140] select: initializing btl component self
[sfgary-cloud2-00086-1-0003:11140] select: init of component self returned success
[sfgary-cloud2-00086-1-0003:11140] select: initializing btl component tcp
[sfgary-cloud2-00086-1-0003:11140] btl:tcp: Attempting to bind to AF_INET port 1024
[sfgary-cloud2-00086-1-0003:11141] mca: base: components_register: component openib register function successful
[sfgary-cloud2-00086-1-0003:11141] mca: base: components_register: found loaded component self
[sfgary-cloud2-00086-1-0003:11140] btl:tcp: Successfully bound to AF_INET port 1024
[sfgary-cloud2-00086-1-0003:11140] btl:tcp: my listening v4 socket is 0.0.0.0:1024
[sfgary-cloud2-00086-1-0003:11140] btl:tcp: examining interface eth0
[sfgary-cloud2-00086-1-0003:11140] btl:tcp: using ipv6 interface eth0
[sfgary-cloud2-00086-1-0003:11140] select: init of component tcp returned success
[sfgary-cloud2-00086-1-0003:11140] select: initializing btl component vader
[sfgary-cloud2-00086-1-0003:11141] mca: base: components_register: component self register function successful
[sfgary-cloud2-00086-1-0003:11141] mca: base: components_register: found loaded component sm
[sfgary-cloud2-00086-1-0003:11141] mca: base: components_register: found loaded component tcp
[sfgary-cloud2-00086-1-0003:11140] select: init of component vader returned success
[sfgary-cloud2-00086-1-0003:11141] mca: base: components_register: component tcp register function successful
[sfgary-cloud2-00086-1-0003:11141] mca: base: components_register: found loaded component vader
[sfgary-cloud2-00086-1-0003:11141] mca: base: components_register: component vader register function successful
[sfgary-cloud2-00086-1-0003:11141] mca: base: components_open: opening btl components
[sfgary-cloud2-00086-1-0003:11141] mca: base: components_open: found loaded component openib
[sfgary-cloud2-00086-1-0003:11141] mca: base: components_open: component openib open function successful
[sfgary-cloud2-00086-1-0003:11141] mca: base: components_open: found loaded component self
[sfgary-cloud2-00086-1-0003:11141] mca: base: components_open: component self open function successful
[sfgary-cloud2-00086-1-0003:11141] mca: base: components_open: found loaded component tcp
[sfgary-cloud2-00086-1-0003:11141] mca: base: components_open: component tcp open function successful
[sfgary-cloud2-00086-1-0003:11141] mca: base: components_open: found loaded component vader
[sfgary-cloud2-00086-1-0003:11141] mca: base: components_open: component vader open function successful
[sfgary-cloud2-00086-1-0003:11141] select: initializing btl component openib
[sfgary-cloud2-00086-1-0003:11141] select: init of component openib returned failure
[sfgary-cloud2-00086-1-0003:11141] mca: base: close: component openib closed
[sfgary-cloud2-00086-1-0003:11141] mca: base: close: unloading component openib
[sfgary-cloud2-00086-1-0003:11141] select: initializing btl component self
[sfgary-cloud2-00086-1-0003:11141] select: init of component self returned success
[sfgary-cloud2-00086-1-0003:11141] select: initializing btl component tcp
[sfgary-cloud2-00086-1-0003:11141] btl:tcp: Attempting to bind to AF_INET port 1024
[sfgary-cloud2-00086-1-0003:11141] btl:tcp: Attempting to bind to AF_INET port 1025
[sfgary-cloud2-00086-1-0003:11141] btl:tcp: Successfully bound to AF_INET port 1025
[sfgary-cloud2-00086-1-0003:11141] btl:tcp: my listening v4 socket is 0.0.0.0:1025
[sfgary-cloud2-00086-1-0003:11141] btl:tcp: examining interface eth0
[sfgary-cloud2-00086-1-0003:11141] btl:tcp: using ipv6 interface eth0
[sfgary-cloud2-00086-1-0003:11141] select: init of component tcp returned success
[sfgary-cloud2-00086-1-0003:11141] select: initializing btl component vader
[sfgary-cloud2-00086-1-0003:11141] select: init of component vader returned success
[sfgary-cloud2-00086-1-0006:11136] mca: base: components_register: registering framework btl components
[sfgary-cloud2-00086-1-0006:11136] mca: base: components_register: found loaded component openib
[sfgary-cloud2-00086-1-0006:11135] mca: base: components_register: registering framework btl components
[sfgary-cloud2-00086-1-0006:11135] mca: base: components_register: found loaded component openib
[sfgary-cloud2-00086-1-0006:11136] mca: base: components_register: component openib register function successful
[sfgary-cloud2-00086-1-0006:11136] mca: base: components_register: found loaded component self
[sfgary-cloud2-00086-1-0006:11136] mca: base: components_register: component self register function successful
[sfgary-cloud2-00086-1-0006:11136] mca: base: components_register: found loaded component sm
[sfgary-cloud2-00086-1-0006:11136] mca: base: components_register: found loaded component tcp
[sfgary-cloud2-00086-1-0006:11136] mca: base: components_register: component tcp register function successful
[sfgary-cloud2-00086-1-0006:11136] mca: base: components_register: found loaded component vader
[sfgary-cloud2-00086-1-0006:11136] mca: base: components_register: component vader register function successful
[sfgary-cloud2-00086-1-0006:11136] mca: base: components_open: opening btl components
[sfgary-cloud2-00086-1-0006:11136] mca: base: components_open: found loaded component openib
[sfgary-cloud2-00086-1-0006:11136] mca: base: components_open: component openib open function successful
[sfgary-cloud2-00086-1-0006:11136] mca: base: components_open: found loaded component self
[sfgary-cloud2-00086-1-0006:11136] mca: base: components_open: component self open function successful
[sfgary-cloud2-00086-1-0006:11136] mca: base: components_open: found loaded component tcp
[sfgary-cloud2-00086-1-0006:11136] mca: base: components_open: component tcp open function successful
[sfgary-cloud2-00086-1-0006:11136] mca: base: components_open: found loaded component vader
[sfgary-cloud2-00086-1-0006:11136] mca: base: components_open: component vader open function successful
[sfgary-cloud2-00086-1-0006:11136] select: initializing btl component openib
[sfgary-cloud2-00086-1-0006:11136] select: init of component openib returned failure
[sfgary-cloud2-00086-1-0006:11136] mca: base: close: component openib closed
[sfgary-cloud2-00086-1-0006:11136] mca: base: close: unloading component openib
[sfgary-cloud2-00086-1-0006:11136] select: initializing btl component self
[sfgary-cloud2-00086-1-0006:11136] select: init of component self returned success
[sfgary-cloud2-00086-1-0006:11136] select: initializing btl component tcp
[sfgary-cloud2-00086-1-0006:11136] btl:tcp: Attempting to bind to AF_INET port 1024
[sfgary-cloud2-00086-1-0006:11136] btl:tcp: Successfully bound to AF_INET port 1024
[sfgary-cloud2-00086-1-0006:11136] btl:tcp: my listening v4 socket is 0.0.0.0:1024
[sfgary-cloud2-00086-1-0006:11136] btl:tcp: examining interface eth0
[sfgary-cloud2-00086-1-0006:11136] btl:tcp: using ipv6 interface eth0
[sfgary-cloud2-00086-1-0006:11136] select: init of component tcp returned success
[sfgary-cloud2-00086-1-0006:11136] select: initializing btl component vader
[sfgary-cloud2-00086-1-0006:11135] mca: base: components_register: component openib register function successful
[sfgary-cloud2-00086-1-0006:11136] select: init of component vader returned success
[sfgary-cloud2-00086-1-0006:11135] mca: base: components_register: found loaded component self
[sfgary-cloud2-00086-1-0006:11135] mca: base: components_register: component self register function successful
[sfgary-cloud2-00086-1-0006:11135] mca: base: components_register: found loaded component sm
[sfgary-cloud2-00086-1-0006:11135] mca: base: components_register: found loaded component tcp
[sfgary-cloud2-00086-1-0006:11135] mca: base: components_register: component tcp register function successful
[sfgary-cloud2-00086-1-0006:11135] mca: base: components_register: found loaded component vader
[sfgary-cloud2-00086-1-0006:11135] mca: base: components_register: component vader register function successful
[sfgary-cloud2-00086-1-0006:11135] mca: base: components_open: opening btl components
[sfgary-cloud2-00086-1-0006:11135] mca: base: components_open: found loaded component openib
[sfgary-cloud2-00086-1-0006:11135] mca: base: components_open: component openib open function successful
[sfgary-cloud2-00086-1-0006:11135] mca: base: components_open: found loaded component self
[sfgary-cloud2-00086-1-0006:11135] mca: base: components_open: component self open function successful
[sfgary-cloud2-00086-1-0006:11135] mca: base: components_open: found loaded component tcp
[sfgary-cloud2-00086-1-0006:11135] mca: base: components_open: component tcp open function successful
[sfgary-cloud2-00086-1-0006:11135] mca: base: components_open: found loaded component vader
[sfgary-cloud2-00086-1-0006:11135] mca: base: components_open: component vader open function successful
[sfgary-cloud2-00086-1-0006:11135] select: initializing btl component openib
[sfgary-cloud2-00086-1-0006:11135] select: init of component openib returned failure
[sfgary-cloud2-00086-1-0006:11135] mca: base: close: component openib closed
[sfgary-cloud2-00086-1-0006:11135] mca: base: close: unloading component openib
[sfgary-cloud2-00086-1-0006:11135] select: initializing btl component self
[sfgary-cloud2-00086-1-0006:11135] select: init of component self returned success
[sfgary-cloud2-00086-1-0006:11135] select: initializing btl component tcp
[sfgary-cloud2-00086-1-0006:11135] btl:tcp: Attempting to bind to AF_INET port 1024
[sfgary-cloud2-00086-1-0006:11135] btl:tcp: Attempting to bind to AF_INET port 1025
[sfgary-cloud2-00086-1-0006:11135] btl:tcp: Successfully bound to AF_INET port 1025
[sfgary-cloud2-00086-1-0006:11135] btl:tcp: my listening v4 socket is 0.0.0.0:1025
[sfgary-cloud2-00086-1-0006:11135] btl:tcp: examining interface eth0
[sfgary-cloud2-00086-1-0006:11135] btl:tcp: using ipv6 interface eth0
[sfgary-cloud2-00086-1-0006:11135] select: init of component tcp returned success
[sfgary-cloud2-00086-1-0006:11135] select: initializing btl component vader
[sfgary-cloud2-00086-1-0006:11135] select: init of component vader returned success
[sfgary-cloud2-00086-1-0002:11165] mca: base: components_register: registering framework btl components
[sfgary-cloud2-00086-1-0002:11166] mca: base: components_register: registering framework btl components
[sfgary-cloud2-00086-1-0002:11166] mca: base: components_register: found loaded component openib
[sfgary-cloud2-00086-1-0002:11165] mca: base: components_register: found loaded component openib
[sfgary-cloud2-00086-1-0002:11166] mca: base: components_register: component openib register function successful
[sfgary-cloud2-00086-1-0002:11166] mca: base: components_register: found loaded component self
[sfgary-cloud2-00086-1-0002:11166] mca: base: components_register: component self register function successful
[sfgary-cloud2-00086-1-0002:11166] mca: base: components_register: found loaded component sm
[sfgary-cloud2-00086-1-0002:11166] mca: base: components_register: found loaded component tcp
[sfgary-cloud2-00086-1-0002:11166] mca: base: components_register: component tcp register function successful
[sfgary-cloud2-00086-1-0002:11166] mca: base: components_register: found loaded component vader
[sfgary-cloud2-00086-1-0002:11166] mca: base: components_register: component vader register function successful
[sfgary-cloud2-00086-1-0002:11166] mca: base: components_open: opening btl components
[sfgary-cloud2-00086-1-0002:11166] mca: base: components_open: found loaded component openib
[sfgary-cloud2-00086-1-0002:11166] mca: base: components_open: component openib open function successful
[sfgary-cloud2-00086-1-0002:11166] mca: base: components_open: found loaded component self
[sfgary-cloud2-00086-1-0002:11166] mca: base: components_open: component self open function successful
[sfgary-cloud2-00086-1-0002:11166] mca: base: components_open: found loaded component tcp
[sfgary-cloud2-00086-1-0002:11166] mca: base: components_open: component tcp open function successful
[sfgary-cloud2-00086-1-0002:11166] mca: base: components_open: found loaded component vader
[sfgary-cloud2-00086-1-0002:11166] mca: base: components_open: component vader open function successful
[sfgary-cloud2-00086-1-0002:11166] select: initializing btl component openib
[sfgary-cloud2-00086-1-0002:11166] select: init of component openib returned failure
[sfgary-cloud2-00086-1-0002:11166] mca: base: close: component openib closed
[sfgary-cloud2-00086-1-0002:11166] mca: base: close: unloading component openib
[sfgary-cloud2-00086-1-0002:11166] select: initializing btl component self
[sfgary-cloud2-00086-1-0002:11166] select: init of component self returned success
[sfgary-cloud2-00086-1-0002:11166] select: initializing btl component tcp
[sfgary-cloud2-00086-1-0002:11165] mca: base: components_register: component openib register function successful
[sfgary-cloud2-00086-1-0002:11165] mca: base: components_register: found loaded component self
[sfgary-cloud2-00086-1-0002:11166] btl:tcp: Attempting to bind to AF_INET port 1024
[sfgary-cloud2-00086-1-0002:11165] mca: base: components_register: component self register function successful
[sfgary-cloud2-00086-1-0002:11165] mca: base: components_register: found loaded component sm
[sfgary-cloud2-00086-1-0002:11165] mca: base: components_register: found loaded component tcp
[sfgary-cloud2-00086-1-0002:11166] btl:tcp: Successfully bound to AF_INET port 1024
[sfgary-cloud2-00086-1-0002:11165] mca: base: components_register: component tcp register function successful
[sfgary-cloud2-00086-1-0002:11166] btl:tcp: my listening v4 socket is 0.0.0.0:1024
[sfgary-cloud2-00086-1-0002:11166] btl:tcp: examining interface eth0
[sfgary-cloud2-00086-1-0002:11166] btl:tcp: using ipv6 interface eth0
[sfgary-cloud2-00086-1-0002:11166] select: init of component tcp returned success
[sfgary-cloud2-00086-1-0002:11166] select: initializing btl component vader
[sfgary-cloud2-00086-1-0002:11165] mca: base: components_register: found loaded component vader
[sfgary-cloud2-00086-1-0002:11166] select: init of component vader returned success
[sfgary-cloud2-00086-1-0002:11165] mca: base: components_register: component vader register function successful
[sfgary-cloud2-00086-1-0002:11165] mca: base: components_open: opening btl components
[sfgary-cloud2-00086-1-0002:11165] mca: base: components_open: found loaded component openib
[sfgary-cloud2-00086-1-0002:11165] mca: base: components_open: component openib open function successful
[sfgary-cloud2-00086-1-0002:11165] mca: base: components_open: found loaded component self
[sfgary-cloud2-00086-1-0002:11165] mca: base: components_open: component self open function successful
[sfgary-cloud2-00086-1-0002:11165] mca: base: components_open: found loaded component tcp
[sfgary-cloud2-00086-1-0002:11165] mca: base: components_open: component tcp open function successful
[sfgary-cloud2-00086-1-0002:11165] mca: base: components_open: found loaded component vader
[sfgary-cloud2-00086-1-0002:11165] mca: base: components_open: component vader open function successful
[sfgary-cloud2-00086-1-0002:11165] select: initializing btl component openib
[sfgary-cloud2-00086-1-0002:11165] select: init of component openib returned failure
[sfgary-cloud2-00086-1-0002:11165] mca: base: close: component openib closed
[sfgary-cloud2-00086-1-0002:11165] mca: base: close: unloading component openib
[sfgary-cloud2-00086-1-0002:11165] select: initializing btl component self
[sfgary-cloud2-00086-1-0002:11165] select: init of component self returned success
[sfgary-cloud2-00086-1-0002:11165] select: initializing btl component tcp
[sfgary-cloud2-00086-1-0002:11165] btl:tcp: Attempting to bind to AF_INET port 1024
[sfgary-cloud2-00086-1-0002:11165] btl:tcp: Attempting to bind to AF_INET port 1025
[sfgary-cloud2-00086-1-0002:11165] btl:tcp: Successfully bound to AF_INET port 1025
[sfgary-cloud2-00086-1-0002:11165] btl:tcp: my listening v4 socket is 0.0.0.0:1025
[sfgary-cloud2-00086-1-0002:11165] btl:tcp: examining interface eth0
[sfgary-cloud2-00086-1-0002:11165] btl:tcp: using ipv6 interface eth0
[sfgary-cloud2-00086-1-0002:11165] select: init of component tcp returned success
[sfgary-cloud2-00086-1-0002:11165] select: initializing btl component vader
[sfgary-cloud2-00086-1-0002:11165] select: init of component vader returned success
[sfgary-cloud2-00086-1-0004:11143] mca: base: components_register: registering framework btl components
[sfgary-cloud2-00086-1-0004:11143] mca: base: components_register: found loaded component openib
[sfgary-cloud2-00086-1-0004:11143] mca: base: components_register: component openib register function successful
[sfgary-cloud2-00086-1-0004:11143] mca: base: components_register: found loaded component self
[sfgary-cloud2-00086-1-0004:11143] mca: base: components_register: component self register function successful
[sfgary-cloud2-00086-1-0004:11143] mca: base: components_register: found loaded component sm
[sfgary-cloud2-00086-1-0004:11143] mca: base: components_register: found loaded component tcp
[sfgary-cloud2-00086-1-0004:11143] mca: base: components_register: component tcp register function successful
[sfgary-cloud2-00086-1-0004:11143] mca: base: components_register: found loaded component vader
[sfgary-cloud2-00086-1-0004:11143] mca: base: components_register: component vader register function successful
[sfgary-cloud2-00086-1-0004:11143] mca: base: components_open: opening btl components
[sfgary-cloud2-00086-1-0004:11143] mca: base: components_open: found loaded component openib
[sfgary-cloud2-00086-1-0004:11143] mca: base: components_open: component openib open function successful
[sfgary-cloud2-00086-1-0004:11143] mca: base: components_open: found loaded component self
[sfgary-cloud2-00086-1-0004:11143] mca: base: components_open: component self open function successful
[sfgary-cloud2-00086-1-0004:11143] mca: base: components_open: found loaded component tcp
[sfgary-cloud2-00086-1-0004:11143] mca: base: components_open: component tcp open function successful
[sfgary-cloud2-00086-1-0004:11143] mca: base: components_open: found loaded component vader
[sfgary-cloud2-00086-1-0004:11143] mca: base: components_open: component vader open function successful
[sfgary-cloud2-00086-1-0004:11143] select: initializing btl component openib
[sfgary-cloud2-00086-1-0004:11143] select: init of component openib returned failure
[sfgary-cloud2-00086-1-0004:11143] mca: base: close: component openib closed
[sfgary-cloud2-00086-1-0004:11143] mca: base: close: unloading component openib
[sfgary-cloud2-00086-1-0004:11143] select: initializing btl component self
[sfgary-cloud2-00086-1-0004:11143] select: init of component self returned success
[sfgary-cloud2-00086-1-0004:11143] select: initializing btl component tcp
[sfgary-cloud2-00086-1-0004:11143] btl:tcp: Attempting to bind to AF_INET port 1024
[sfgary-cloud2-00086-1-0004:11143] btl:tcp: Successfully bound to AF_INET port 1024
[sfgary-cloud2-00086-1-0004:11143] btl:tcp: my listening v4 socket is 0.0.0.0:1024
[sfgary-cloud2-00086-1-0004:11143] btl:tcp: examining interface eth0
[sfgary-cloud2-00086-1-0004:11143] btl:tcp: using ipv6 interface eth0
[sfgary-cloud2-00086-1-0004:11143] select: init of component tcp returned success
[sfgary-cloud2-00086-1-0004:11143] select: initializing btl component vader
[sfgary-cloud2-00086-1-0004:11143] select: init of component vader returned success
[sfgary-cloud2-00086-1-0004:11144] mca: base: components_register: registering framework btl components
[sfgary-cloud2-00086-1-0004:11144] mca: base: components_register: found loaded component openib
[sfgary-cloud2-00086-1-0004:11144] mca: base: components_register: component openib register function successful
[sfgary-cloud2-00086-1-0004:11144] mca: base: components_register: found loaded component self
[sfgary-cloud2-00086-1-0004:11144] mca: base: components_register: component self register function successful
[sfgary-cloud2-00086-1-0004:11144] mca: base: components_register: found loaded component sm
[sfgary-cloud2-00086-1-0004:11144] mca: base: components_register: found loaded component tcp
[sfgary-cloud2-00086-1-0004:11144] mca: base: components_register: component tcp register function successful
[sfgary-cloud2-00086-1-0004:11144] mca: base: components_register: found loaded component vader
[sfgary-cloud2-00086-1-0004:11144] mca: base: components_register: component vader register function successful
[sfgary-cloud2-00086-1-0004:11144] mca: base: components_open: opening btl components
[sfgary-cloud2-00086-1-0004:11144] mca: base: components_open: found loaded component openib
[sfgary-cloud2-00086-1-0004:11144] mca: base: components_open: component openib open function successful
[sfgary-cloud2-00086-1-0004:11144] mca: base: components_open: found loaded component self
[sfgary-cloud2-00086-1-0004:11144] mca: base: components_open: component self open function successful
[sfgary-cloud2-00086-1-0004:11144] mca: base: components_open: found loaded component tcp
[sfgary-cloud2-00086-1-0004:11144] mca: base: components_open: component tcp open function successful
[sfgary-cloud2-00086-1-0004:11144] mca: base: components_open: found loaded component vader
[sfgary-cloud2-00086-1-0004:11144] mca: base: components_open: component vader open function successful
[sfgary-cloud2-00086-1-0004:11144] select: initializing btl component openib
[sfgary-cloud2-00086-1-0004:11144] select: init of component openib returned failure
[sfgary-cloud2-00086-1-0004:11144] mca: base: close: component openib closed
[sfgary-cloud2-00086-1-0004:11144] mca: base: close: unloading component openib
[sfgary-cloud2-00086-1-0004:11144] select: initializing btl component self
[sfgary-cloud2-00086-1-0004:11144] select: init of component self returned success
[sfgary-cloud2-00086-1-0004:11144] select: initializing btl component tcp
[sfgary-cloud2-00086-1-0004:11144] btl:tcp: Attempting to bind to AF_INET port 1024
[sfgary-cloud2-00086-1-0004:11144] btl:tcp: Attempting to bind to AF_INET port 1025
[sfgary-cloud2-00086-1-0004:11144] btl:tcp: Successfully bound to AF_INET port 1025
[sfgary-cloud2-00086-1-0004:11144] btl:tcp: my listening v4 socket is 0.0.0.0:1025
[sfgary-cloud2-00086-1-0004:11144] btl:tcp: examining interface eth0
[sfgary-cloud2-00086-1-0004:11144] btl:tcp: using ipv6 interface eth0
[sfgary-cloud2-00086-1-0004:11144] select: init of component tcp returned success
[sfgary-cloud2-00086-1-0004:11144] select: initializing btl component vader
[sfgary-cloud2-00086-1-0004:11144] select: init of component vader returned success
[sfgary-cloud2-00086-1-0005:11140] mca: base: components_register: registering framework btl components
[sfgary-cloud2-00086-1-0005:11140] mca: base: components_register: found loaded component openib
[sfgary-cloud2-00086-1-0005:11141] mca: base: components_register: registering framework btl components
[sfgary-cloud2-00086-1-0005:11140] mca: base: components_register: component openib register function successful
[sfgary-cloud2-00086-1-0005:11140] mca: base: components_register: found loaded component self
[sfgary-cloud2-00086-1-0005:11141] mca: base: components_register: found loaded component openib
[sfgary-cloud2-00086-1-0005:11140] mca: base: components_register: component self register function successful
[sfgary-cloud2-00086-1-0005:11140] mca: base: components_register: found loaded component sm
[sfgary-cloud2-00086-1-0005:11140] mca: base: components_register: found loaded component tcp
[sfgary-cloud2-00086-1-0005:11140] mca: base: components_register: component tcp register function successful
[sfgary-cloud2-00086-1-0005:11140] mca: base: components_register: found loaded component vader
[sfgary-cloud2-00086-1-0005:11140] mca: base: components_register: component vader register function successful
[sfgary-cloud2-00086-1-0005:11140] mca: base: components_open: opening btl components
[sfgary-cloud2-00086-1-0005:11140] mca: base: components_open: found loaded component openib
[sfgary-cloud2-00086-1-0005:11140] mca: base: components_open: component openib open function successful
[sfgary-cloud2-00086-1-0005:11140] mca: base: components_open: found loaded component self
[sfgary-cloud2-00086-1-0005:11140] mca: base: components_open: component self open function successful
[sfgary-cloud2-00086-1-0005:11140] mca: base: components_open: found loaded component tcp
[sfgary-cloud2-00086-1-0005:11140] mca: base: components_open: component tcp open function successful
[sfgary-cloud2-00086-1-0005:11140] mca: base: components_open: found loaded component vader
[sfgary-cloud2-00086-1-0005:11140] mca: base: components_open: component vader open function successful
[sfgary-cloud2-00086-1-0005:11140] select: initializing btl component openib
[sfgary-cloud2-00086-1-0005:11140] select: init of component openib returned failure
[sfgary-cloud2-00086-1-0005:11140] mca: base: close: component openib closed
[sfgary-cloud2-00086-1-0005:11140] mca: base: close: unloading component openib
[sfgary-cloud2-00086-1-0005:11140] select: initializing btl component self
[sfgary-cloud2-00086-1-0005:11140] select: init of component self returned success
[sfgary-cloud2-00086-1-0005:11140] select: initializing btl component tcp
[sfgary-cloud2-00086-1-0005:11141] mca: base: components_register: component openib register function successful
[sfgary-cloud2-00086-1-0005:11140] btl:tcp: Attempting to bind to AF_INET port 1024
[sfgary-cloud2-00086-1-0005:11141] mca: base: components_register: found loaded component self
[sfgary-cloud2-00086-1-0005:11141] mca: base: components_register: component self register function successful
[sfgary-cloud2-00086-1-0005:11140] btl:tcp: Successfully bound to AF_INET port 1024
[sfgary-cloud2-00086-1-0005:11140] btl:tcp: my listening v4 socket is 0.0.0.0:1024
[sfgary-cloud2-00086-1-0005:11140] btl:tcp: examining interface eth0
[sfgary-cloud2-00086-1-0005:11140] btl:tcp: using ipv6 interface eth0
[sfgary-cloud2-00086-1-0005:11140] select: init of component tcp returned success
[sfgary-cloud2-00086-1-0005:11140] select: initializing btl component vader
[sfgary-cloud2-00086-1-0005:11140] select: init of component vader returned success
[sfgary-cloud2-00086-1-0005:11141] mca: base: components_register: found loaded component sm
[sfgary-cloud2-00086-1-0005:11141] mca: base: components_register: found loaded component tcp
[sfgary-cloud2-00086-1-0005:11141] mca: base: components_register: component tcp register function successful
[sfgary-cloud2-00086-1-0005:11141] mca: base: components_register: found loaded component vader
[sfgary-cloud2-00086-1-0005:11141] mca: base: components_register: component vader register function successful
[sfgary-cloud2-00086-1-0005:11141] mca: base: components_open: opening btl components
[sfgary-cloud2-00086-1-0005:11141] mca: base: components_open: found loaded component openib
[sfgary-cloud2-00086-1-0005:11141] mca: base: components_open: component openib open function successful
[sfgary-cloud2-00086-1-0005:11141] mca: base: components_open: found loaded component self
[sfgary-cloud2-00086-1-0005:11141] mca: base: components_open: component self open function successful
[sfgary-cloud2-00086-1-0005:11141] mca: base: components_open: found loaded component tcp
[sfgary-cloud2-00086-1-0005:11141] mca: base: components_open: component tcp open function successful
[sfgary-cloud2-00086-1-0005:11141] mca: base: components_open: found loaded component vader
[sfgary-cloud2-00086-1-0005:11141] mca: base: components_open: component vader open function successful
[sfgary-cloud2-00086-1-0005:11141] select: initializing btl component openib
[sfgary-cloud2-00086-1-0005:11141] select: init of component openib returned failure
[sfgary-cloud2-00086-1-0005:11141] mca: base: close: component openib closed
[sfgary-cloud2-00086-1-0005:11141] mca: base: close: unloading component openib
[sfgary-cloud2-00086-1-0005:11141] select: initializing btl component self
[sfgary-cloud2-00086-1-0005:11141] select: init of component self returned success
[sfgary-cloud2-00086-1-0005:11141] select: initializing btl component tcp
[sfgary-cloud2-00086-1-0005:11141] btl:tcp: Attempting to bind to AF_INET port 1024
[sfgary-cloud2-00086-1-0005:11141] btl:tcp: Attempting to bind to AF_INET port 1025
[sfgary-cloud2-00086-1-0005:11141] btl:tcp: Successfully bound to AF_INET port 1025
[sfgary-cloud2-00086-1-0005:11141] btl:tcp: my listening v4 socket is 0.0.0.0:1025
[...]
    Parcel fate (number, mass)      : patch walls
      - escape                      = 0, 0
      - stick                       = 0, 0
    Min cell volume fraction        = 0
    Max cell volume fraction        = 0

smoothSolver:  Solving for U.airx, Initial residual = 0.000545076, Final residual = 1.471e-06, No Iterations 1
smoothSolver:  Solving for U.airy, Initial residual = 0.000979477, Final residual = 2.92531e-06, No Iterations 1
smoothSolver:  Solving for U.airz, Initial residual = 0.000790209, Final residual = 2.31188e-06, No Iterations 1
GAMG:  Solving for p, Initial residual = 0.00153248, Final residual = 1.24633e-05, No Iterations 4
GAMG:  Solving for p, Initial residual = 9.609e-05, Final residual = 8.10816e-07, No Iterations 4
smoothSolver:  Solving for k.air, Initial residual = 0.000447302, Final residual = 1.2321e-06, No Iterations 1
ExecutionTime = 146.534 s  ClockTime = 147 s

Courant Number mean: 0.0206572 max: 0.134443
Time = 0.1986s


Solving 3-D cloud cloud
GAMG:  Solving for cloud:alpha, Initial residual = 0.00115731, Final residual = 2.60984e-06, No Iterations 1
Cloud: cloud
    Current number of parcels       = 0
    Current mass in system          = 0
    Linear momentum                 = (0 0 0)
   |Linear momentum|                = 0
    Linear kinetic energy           = 0
    model1:
        number of parcels added     = 0
        mass introduced             = 0
    Parcel fate (number, mass)      : patch inlet
      - escape                      = 0, 0
      - stick                       = 0, 0
    Parcel fate (number, mass)      : patch outlet
      - escape                      = 0, 0
      - stick                       = 0, 0
    Parcel fate (number, mass)      : patch walls
      - escape                      = 0, 0
      - stick                       = 0, 0
    Min cell volume fraction        = 0
    Max cell volume fraction        = 0

smoothSolver:  Solving for U.airx, Initial residual = 0.000545075, Final residual = 1.47056e-06, No Iterations 1
smoothSolver:  Solving for U.airy, Initial residual = 0.00097915, Final residual = 2.92292e-06, No Iterations 1
smoothSolver:  Solving for U.airz, Initial residual = 0.000790308, Final residual = 2.30522e-06, No Iterations 1
GAMG:  Solving for p, Initial residual = 0.00154608, Final residual = 1.27487e-05, No Iterations 4
GAMG:  Solving for p, Initial residual = 9.91817e-05, Final residual = 8.72024e-07, No Iterations 4
smoothSolver:  Solving for k.air, Initial residual = 0.000447085, Final residual = 1.23041e-06, No Iterations 1
ExecutionTime = 146.661 s  ClockTime = 147 s

Courant Number mean: 0.0206691 max: 0.134382
Time = 0.1988s


Solving 3-D cloud cloud
GAMG:  Solving for cloud:alpha, Initial residual = 0.00115731, Final residual = 2.60984e-06, No Iterations 1
Cloud: cloud
    Current number of parcels       = 0
    Current mass in system          = 0
    Linear momentum                 = (0 0 0)
   |Linear momentum|                = 0
    Linear kinetic energy           = 0
    model1:
        number of parcels added     = 0
        mass introduced             = 0
    Parcel fate (number, mass)      : patch inlet
      - escape                      = 0, 0
      - stick                       = 0, 0
    Parcel fate (number, mass)      : patch outlet
      - escape                      = 0, 0
      - stick                       = 0, 0
    Parcel fate (number, mass)      : patch walls
      - escape                      = 0, 0
      - stick                       = 0, 0
    Min cell volume fraction        = 0
    Max cell volume fraction        = 0

smoothSolver:  Solving for U.airx, Initial residual = 0.000544873, Final residual = 1.46952e-06, No Iterations 1
smoothSolver:  Solving for U.airy, Initial residual = 0.000978859, Final residual = 2.92034e-06, No Iterations 1
smoothSolver:  Solving for U.airz, Initial residual = 0.000790296, Final residual = 2.29832e-06, No Iterations 1
GAMG:  Solving for p, Initial residual = 0.00150569, Final residual = 1.27025e-05, No Iterations 4
GAMG:  Solving for p, Initial residual = 0.000100382, Final residual = 7.88585e-07, No Iterations 4
smoothSolver:  Solving for k.air, Initial residual = 0.000446867, Final residual = 1.22886e-06, No Iterations 1
ExecutionTime = 146.786 s  ClockTime = 147 s

Courant Number mean: 0.0206811 max: 0.13432
Time = 0.199s


Solving 3-D cloud cloud
GAMG:  Solving for cloud:alpha, Initial residual = 0.00115731, Final residual = 2.60984e-06, No Iterations 1
Cloud: cloud
    Current number of parcels       = 0
    Current mass in system          = 0
    Linear momentum                 = (0 0 0)
   |Linear momentum|                = 0
    Linear kinetic energy           = 0
    model1:
        number of parcels added     = 0
        mass introduced             = 0
    Parcel fate (number, mass)      : patch inlet
      - escape                      = 0, 0
      - stick                       = 0, 0
    Parcel fate (number, mass)      : patch outlet
      - escape                      = 0, 0
      - stick                       = 0, 0
    Parcel fate (number, mass)      : patch walls
      - escape                      = 0, 0
      - stick                       = 0, 0
    Min cell volume fraction        = 0
    Max cell volume fraction        = 0

smoothSolver:  Solving for U.airx, Initial residual = 0.000544793, Final residual = 1.46834e-06, No Iterations 1
smoothSolver:  Solving for U.airy, Initial residual = 0.000978374, Final residual = 2.91794e-06, No Iterations 1
smoothSolver:  Solving for U.airz, Initial residual = 0.000790303, Final residual = 2.29149e-06, No Iterations 1
GAMG:  Solving for p, Initial residual = 0.0016144, Final residual = 1.28764e-05, No Iterations 4
GAMG:  Solving for p, Initial residual = 0.000101838, Final residual = 7.93727e-07, No Iterations 4
smoothSolver:  Solving for k.air, Initial residual = 0.000446668, Final residual = 1.22733e-06, No Iterations 1
ExecutionTime = 146.913 s  ClockTime = 147 s

Courant Number mean: 0.020693 max: 0.134258
Time = 0.1992s


Solving 3-D cloud cloud
GAMG:  Solving for cloud:alpha, Initial residual = 0.00115731, Final residual = 2.60984e-06, No Iterations 1
Cloud: cloud
    Current number of parcels       = 0
    Current mass in system          = 0
    Linear momentum                 = (0 0 0)
   |Linear momentum|                = 0
    Linear kinetic energy           = 0
    model1:
        number of parcels added     = 0
        mass introduced             = 0
    Parcel fate (number, mass)      : patch inlet
      - escape                      = 0, 0
      - stick                       = 0, 0
    Parcel fate (number, mass)      : patch outlet
      - escape                      = 0, 0
      - stick                       = 0, 0
    Parcel fate (number, mass)      : patch walls
      - escape                      = 0, 0
      - stick                       = 0, 0
    Min cell volume fraction        = 0
    Max cell volume fraction        = 0

smoothSolver:  Solving for U.airx, Initial residual = 0.000544658, Final residual = 1.46682e-06, No Iterations 1
smoothSolver:  Solving for U.airy, Initial residual = 0.000977734, Final residual = 2.91483e-06, No Iterations 1
smoothSolver:  Solving for U.airz, Initial residual = 0.000790203, Final residual = 2.28448e-06, No Iterations 1
GAMG:  Solving for p, Initial residual = 0.00154856, Final residual = 1.35358e-05, No Iterations 4
GAMG:  Solving for p, Initial residual = 9.94188e-05, Final residual = 9.79252e-07, No Iterations 4
smoothSolver:  Solving for k.air, Initial residual = 0.00044646, Final residual = 1.2257e-06, No Iterations 1
ExecutionTime = 147.045 s  ClockTime = 147 s

Courant Number mean: 0.0207049 max: 0.134197
Time = 0.1994s


Solving 3-D cloud cloud
GAMG:  Solving for cloud:alpha, Initial residual = 0.00115731, Final residual = 2.60984e-06, No Iterations 1
Cloud: cloud
    Current number of parcels       = 0
    Current mass in system          = 0
    Linear momentum                 = (0 0 0)
   |Linear momentum|                = 0
    Linear kinetic energy           = 0
    model1:
        number of parcels added     = 0
        mass introduced             = 0
    Parcel fate (number, mass)      : patch inlet
      - escape                      = 0, 0
      - stick                       = 0, 0
    Parcel fate (number, mass)      : patch outlet
      - escape                      = 0, 0
      - stick                       = 0, 0
    Parcel fate (number, mass)      : patch walls
      - escape                      = 0, 0
      - stick                       = 0, 0
    Min cell volume fraction        = 0
    Max cell volume fraction        = 0

smoothSolver:  Solving for U.airx, Initial residual = 0.000544681, Final residual = 1.46594e-06, No Iterations 1
smoothSolver:  Solving for U.airy, Initial residual = 0.000977481, Final residual = 2.912e-06, No Iterations 1
smoothSolver:  Solving for U.airz, Initial residual = 0.000790359, Final residual = 2.27758e-06, No Iterations 1
GAMG:  Solving for p, Initial residual = 0.00160011, Final residual = 1.28306e-05, No Iterations 4
GAMG:  Solving for p, Initial residual = 9.78466e-05, Final residual = 8.20053e-07, No Iterations 4
smoothSolver:  Solving for k.air, Initial residual = 0.000446264, Final residual = 1.22457e-06, No Iterations 1
ExecutionTime = 147.171 s  ClockTime = 147 s

Courant Number mean: 0.0207168 max: 0.134136
Time = 0.1996s


Solving 3-D cloud cloud
GAMG:  Solving for cloud:alpha, Initial residual = 0.00115731, Final residual = 2.60984e-06, No Iterations 1
Cloud: cloud
    Current number of parcels       = 0
    Current mass in system          = 0
    Linear momentum                 = (0 0 0)
   |Linear momentum|                = 0
    Linear kinetic energy           = 0
    model1:
        number of parcels added     = 0
        mass introduced             = 0
    Parcel fate (number, mass)      : patch inlet
      - escape                      = 0, 0
      - stick                       = 0, 0
    Parcel fate (number, mass)      : patch outlet
      - escape                      = 0, 0
      - stick                       = 0, 0
    Parcel fate (number, mass)      : patch walls
      - escape                      = 0, 0
      - stick                       = 0, 0
    Min cell volume fraction        = 0
    Max cell volume fraction        = 0

smoothSolver:  Solving for U.airx, Initial residual = 0.000544688, Final residual = 1.4641e-06, No Iterations 1
smoothSolver:  Solving for U.airy, Initial residual = 0.000976986, Final residual = 2.90987e-06, No Iterations 1
smoothSolver:  Solving for U.airz, Initial residual = 0.000790354, Final residual = 2.27056e-06, No Iterations 1
GAMG:  Solving for p, Initial residual = 0.00166101, Final residual = 1.18755e-05, No Iterations 4
GAMG:  Solving for p, Initial residual = 0.000100748, Final residual = 9.15316e-07, No Iterations 4
smoothSolver:  Solving for k.air, Initial residual = 0.00044608, Final residual = 1.22353e-06, No Iterations 1
ExecutionTime = 147.298 s  ClockTime = 148 s

Courant Number mean: 0.0207287 max: 0.134075
Time = 0.1998s


Solving 3-D cloud cloud
GAMG:  Solving for cloud:alpha, Initial residual = 0.00115731, Final residual = 2.60984e-06, No Iterations 1
Cloud: cloud
    Current number of parcels       = 0
    Current mass in system          = 0
    Linear momentum                 = (0 0 0)
   |Linear momentum|                = 0
    Linear kinetic energy           = 0
    model1:
        number of parcels added     = 0
        mass introduced             = 0
    Parcel fate (number, mass)      : patch inlet
      - escape                      = 0, 0
      - stick                       = 0, 0
    Parcel fate (number, mass)      : patch outlet
      - escape                      = 0, 0
      - stick                       = 0, 0
    Parcel fate (number, mass)      : patch walls
      - escape                      = 0, 0
      - stick                       = 0, 0
    Min cell volume fraction        = 0
    Max cell volume fraction        = 0

smoothSolver:  Solving for U.airx, Initial residual = 0.000544621, Final residual = 1.46322e-06, No Iterations 1
smoothSolver:  Solving for U.airy, Initial residual = 0.000976345, Final residual = 2.90702e-06, No Iterations 1
smoothSolver:  Solving for U.airz, Initial residual = 0.000790282, Final residual = 2.26265e-06, No Iterations 1
GAMG:  Solving for p, Initial residual = 0.00157996, Final residual = 1.2513e-05, No Iterations 4
GAMG:  Solving for p, Initial residual = 9.77463e-05, Final residual = 9.43873e-07, No Iterations 4
smoothSolver:  Solving for k.air, Initial residual = 0.000445881, Final residual = 1.22277e-06, No Iterations 1
ExecutionTime = 147.428 s  ClockTime = 148 s

Courant Number mean: 0.0207406 max: 0.134013
Time = 0.2s


Solving 3-D cloud cloud
GAMG:  Solving for cloud:alpha, Initial residual = 0.00115731, Final residual = 2.60984e-06, No Iterations 1
Cloud: cloud
    Current number of parcels       = 0
    Current mass in system          = 0
    Linear momentum                 = (0 0 0)
   |Linear momentum|                = 0
    Linear kinetic energy           = 0
    model1:
        number of parcels added     = 0
        mass introduced             = 0
    Parcel fate (number, mass)      : patch inlet
      - escape                      = 0, 0
      - stick                       = 0, 0
    Parcel fate (number, mass)      : patch outlet
      - escape                      = 0, 0
      - stick                       = 0, 0
    Parcel fate (number, mass)      : patch walls
      - escape                      = 0, 0
      - stick                       = 0, 0
    Min cell volume fraction        = 0
    Max cell volume fraction        = 0

smoothSolver:  Solving for U.airx, Initial residual = 0.000544707, Final residual = 1.46283e-06, No Iterations 1
smoothSolver:  Solving for U.airy, Initial residual = 0.000976032, Final residual = 2.90455e-06, No Iterations 1
smoothSolver:  Solving for U.airz, Initial residual = 0.000790305, Final residual = 2.25473e-06, No Iterations 1
GAMG:  Solving for p, Initial residual = 0.00154281, Final residual = 1.18264e-05, No Iterations 4
GAMG:  Solving for p, Initial residual = 9.76067e-05, Final residual = 7.69228e-07, No Iterations 4
smoothSolver:  Solving for k.air, Initial residual = 0.000445668, Final residual = 1.22172e-06, No Iterations 1
ExecutionTime = 147.58 s  ClockTime = 148 s

End

Finalising parallel run
[sfgary-cloud2-00086-1-0001:11706] mca: base: close: component self closed
[sfgary-cloud2-00086-1-0001:11706] mca: base: close: unloading component self
[sfgary-cloud2-00086-1-0001:11705] mca: base: close: component self closed
[sfgary-cloud2-00086-1-0001:11705] mca: base: close: unloading component self
[sfgary-cloud2-00086-1-0001:11706] mca: base: close: component tcp closed
[sfgary-cloud2-00086-1-0001:11706] mca: base: close: unloading component tcp
[sfgary-cloud2-00086-1-0001:11705] mca: base: close: component tcp closed
[sfgary-cloud2-00086-1-0001:11705] mca: base: close: unloading component tcp
[sfgary-cloud2-00086-1-0001:11706] mca: base: close: component vader closed
[sfgary-cloud2-00086-1-0001:11706] mca: base: close: unloading component vader
[sfgary-cloud2-00086-1-0001:11705] mca: base: close: component vader closed
[sfgary-cloud2-00086-1-0001:11705] mca: base: close: unloading component vader
[sfgary-cloud2-00086-1-0003:11140] mca: base: close: component self closed
[sfgary-cloud2-00086-1-0003:11140] mca: base: close: unloading component self
[sfgary-cloud2-00086-1-0006:11135] mca: base: close: component self closed
[sfgary-cloud2-00086-1-0006:11135] mca: base: close: unloading component self
[sfgary-cloud2-00086-1-0003:11141] mca: base: close: component self closed
[sfgary-cloud2-00086-1-0003:11141] mca: base: close: unloading component self
[sfgary-cloud2-00086-1-0006:11136] mca: base: close: component self closed
[sfgary-cloud2-00086-1-0006:11136] mca: base: close: unloading component self
[sfgary-cloud2-00086-1-0005:11140] mca: base: close: component self closed
[sfgary-cloud2-00086-1-0005:11140] mca: base: close: unloading component self
[sfgary-cloud2-00086-1-0006:11135] mca: base: close: component tcp closed
[sfgary-cloud2-00086-1-0006:11135] mca: base: close: unloading component tcp
[sfgary-cloud2-00086-1-0003:11141] mca: base: close: component tcp closed
[sfgary-cloud2-00086-1-0003:11141] mca: base: close: unloading component tcp
[sfgary-cloud2-00086-1-0004:11143] mca: base: close: component self closed
[sfgary-cloud2-00086-1-0004:11143] mca: base: close: unloading component self
[sfgary-cloud2-00086-1-0005:11141] mca: base: close: component self closed
[sfgary-cloud2-00086-1-0005:11141] mca: base: close: unloading component self
[sfgary-cloud2-00086-1-0006:11135] mca: base: close: component vader closed
[sfgary-cloud2-00086-1-0006:11135] mca: base: close: unloading component vader
[sfgary-cloud2-00086-1-0003:11140] mca: base: close: component tcp closed
[sfgary-cloud2-00086-1-0003:11140] mca: base: close: unloading component tcp
[sfgary-cloud2-00086-1-0002:11166] mca: base: close: component self closed
[sfgary-cloud2-00086-1-0002:11166] mca: base: close: unloading component self
[sfgary-cloud2-00086-1-0004:11144] mca: base: close: component self closed
[sfgary-cloud2-00086-1-0004:11144] mca: base: close: unloading component self
[sfgary-cloud2-00086-1-0005:11141] mca: base: close: component tcp closed
[sfgary-cloud2-00086-1-0005:11141] mca: base: close: unloading component tcp
[sfgary-cloud2-00086-1-0003:11141] mca: base: close: component vader closed
[sfgary-cloud2-00086-1-0003:11141] mca: base: close: unloading component vader
[sfgary-cloud2-00086-1-0002:11165] mca: base: close: component self closed
[sfgary-cloud2-00086-1-0002:11165] mca: base: close: unloading component self
[sfgary-cloud2-00086-1-0004:11143] mca: base: close: component tcp closed
[sfgary-cloud2-00086-1-0004:11143] mca: base: close: unloading component tcp
[sfgary-cloud2-00086-1-0005:11140] mca: base: close: component tcp closed
[sfgary-cloud2-00086-1-0005:11140] mca: base: close: unloading component tcp
[sfgary-cloud2-00086-1-0003:11140] mca: base: close: component vader closed
[sfgary-cloud2-00086-1-0003:11140] mca: base: close: unloading component vader
[sfgary-cloud2-00086-1-0002:11166] mca: base: close: component tcp closed
[sfgary-cloud2-00086-1-0002:11166] mca: base: close: unloading component tcp
[sfgary-cloud2-00086-1-0004:11144] mca: base: close: component tcp closed
[sfgary-cloud2-00086-1-0004:11144] mca: base: close: unloading component tcp
[sfgary-cloud2-00086-1-0005:11141] mca: base: close: component vader closed
[sfgary-cloud2-00086-1-0005:11141] mca: base: close: unloading component vader
[sfgary-cloud2-00086-1-0002:11166] mca: base: close: component vader closed
[sfgary-cloud2-00086-1-0002:11166] mca: base: close: unloading component vader
[sfgary-cloud2-00086-1-0004:11143] mca: base: close: component vader closed
[sfgary-cloud2-00086-1-0004:11143] mca: base: close: unloading component vader
[sfgary-cloud2-00086-1-0005:11140] mca: base: close: component vader closed
[sfgary-cloud2-00086-1-0005:11140] mca: base: close: unloading component vader
[sfgary-cloud2-00086-1-0006:11136] mca: base: close: component tcp closed
[sfgary-cloud2-00086-1-0006:11136] mca: base: close: unloading component tcp
[sfgary-cloud2-00086-1-0004:11144] mca: base: close: component vader closed
[sfgary-cloud2-00086-1-0004:11144] mca: base: close: unloading component vader
[sfgary-cloud2-00086-1-0002:11165] mca: base: close: component tcp closed
[sfgary-cloud2-00086-1-0002:11165] mca: base: close: unloading component tcp
[sfgary-cloud2-00086-1-0006:11136] mca: base: close: component vader closed
[sfgary-cloud2-00086-1-0006:11136] mca: base: close: unloading component vader
[sfgary-cloud2-00086-1-0002:11165] mca: base: close: component vader closed
[sfgary-cloud2-00086-1-0002:11165] mca: base: close: unloading component vader
